version 2
1
9
.tran 10u 500m{return}.kicad adjustpaths{return}.save all{return}.probe alli
1
1
V(/vout)
 
