version 2
1
9
.tran 10m 10 0{return}.kicad adjustpaths{return}.save all{return}.probe alli
2
1
V(/V_DAC)
 
1
V(/V_FB)
 
