version 2
1
9
.tran 10u 10m 0{return}.kicad adjustpaths{return}.save all{return}.probe alli
2
1
V(/vin)
 
1
V(/vout)
 
